Circuit: * C:\Users\Johnny Li\Documents\LTspiceXVII\Draft4.asc

Early termination of direct N-R iteration.
Direct Newton iteration failed to find .op point.  (Use ".option noopiter" to skip.)
Starting Gmin stepping
Gmin = 10
vernier = 0.5
vernier = 0.25
Gmin = 3.42672
vernier = 0.125
vernier = 0.0625
vernier = 0.03125
vernier = 0.015625
Gmin = 3.54324
vernier = 0.0078125
vernier = 0.00390625
vernier = 0.00195313
vernier = 0.000976563
Gmin = 3.54065
vernier = 0.000488281
Gmin = 0
Gmin stepping failed

Starting source stepping with srcstepmethod=0
Source Step = 3.0303%
Source Step = 33.3333%
Source Step = 51.8939%
Source Step = 53.4564%
Source Step = 53.5689%
Source Step = 53.5985%
Source Step = 53.6281%
Source Step = 53.6577%
Source Step = 53.6873%
vernier = 0.00146484
Source Step = 53.7228%
Source Step = 53.7672%
Source Step = 53.8116%
Source Step = 53.8559%
Source Step = 53.9003%
vernier = 0.00219727
Source Step = 53.9514%
Source Step = 54.018%
Source Step = 54.0845%
Source Step = 54.1511%
Source Step = 54.2177%
vernier = 0.0032959
Source Step = 54.291%
Source Step = 54.3908%
Source Step = 54.4907%
Source Step = 54.5906%
Source Step = 54.6905%
vernier = 0.00494385
Source Step = 54.7953%
Source Step = 54.9451%
Source Step = 55.095%
Source Step = 55.2448%
Source Step = 55.3946%
Source Step = 55.5444%
vernier = 0.00741577
Source Step = 55.7691%
Source Step = 55.9938%
Source Step = 56.2186%
Source Step = 56.4433%
Source Step = 56.668%
vernier = 0.0111237
Source Step = 56.9938%
Source Step = 57.3309%
Source Step = 57.668%
Source Step = 58.0051%
Source Step = 58.3422%
vernier = 0.0166855
Source Step = 58.8141%
Source Step = 59.3197%
Source Step = 59.8253%
Source Step = 60.3309%
Source Step = 60.8366%
vernier = 0.0250282
Source Step = 61.5191%
Source Step = 62.2776%
Source Step = 63.036%
Source Step = 63.401%
Source Step = 63.4484%
Source Step = 63.4958%
Source Step = 63.5432%
Source Step = 63.5906%
Source Step = 63.638%
vernier = 0.0023464
Source Step = 63.702%
Source Step = 63.7731%
Source Step = 63.8442%
Source Step = 63.9153%
Source Step = 63.9864%
vernier = 0.00351959
Source Step = 64.0789%
Source Step = 64.1855%
Source Step = 64.2922%
Source Step = 64.3988%
Source Step = 64.5055%
vernier = 0.00527939
Source Step = 64.6388%
Source Step = 64.7988%
Source Step = 64.9588%
Source Step = 65.1187%
Source Step = 65.2787%
vernier = 0.00791909
Source Step = 65.4707%
Source Step = 65.7107%
Source Step = 65.9506%
Source Step = 66.1906%
Source Step = 66.4306%
vernier = 0.0118786
Source Step = 66.7066%
Source Step = 67.0665%
Source Step = 67.4265%
Source Step = 67.7864%
Source Step = 68.1464%
vernier = 0.0178179
Source Step = 68.5423%
Source Step = 69.0823%
Source Step = 69.6222%
Source Step = 70.1622%
Source Step = 70.7021%
vernier = 0.0267269
Source Step = 71.269%
Source Step = 72.0789%
Source Step = 72.8888%
Source Step = 73.6987%
Source Step = 74.5087%
Source Step = 75.3186%
vernier = 0.0400904
Source Step = 76.5334%
Source Step = 77.7483%
Source Step = 78.9631%
Source Step = 80.178%
Source Step = 81.3929%
vernier = 0.0601356
Source Step = 83.1544%
Source Step = 84.9767%
Source Step = 86.799%
Source Step = 88.6213%
Source Step = 90.4436%
Source Step = 90.5347%
Source Step = 90.6486%
Source Step = 90.7625%
Source Step = 90.8764%
Source Step = 90.9903%
vernier = 0.00563771
Source Step = 91.144%
Source Step = 91.3149%
Source Step = 91.4857%
Source Step = 91.6565%
Source Step = 91.8274%
vernier = 0.00845657
Source Step = 92.0495%
Source Step = 92.3057%
Source Step = 92.562%
Source Step = 92.8182%
Source Step = 93.0745%
vernier = 0.0126848
Source Step = 93.3948%
Source Step = 93.7792%
Source Step = 94.1636%
Source Step = 94.548%
Source Step = 94.9324%
vernier = 0.0190273
Source Step = 95.3936%
Source Step = 95.9702%
Source Step = 96.5468%
Source Step = 97.1234%
Source Step = 97.7%
vernier = 0.0285409
Source Step = 98.3631%
Source Step = 99.2279%
Source stepping succeeded in finding the operating point.


Date: Mon Oct 08 20:59:00 2018
Total elapsed time: 2.520 seconds.

tnom = 27
temp = 27
method = modified trap
totiter = 8683
traniter = 2111
tranpoints = 1048
accept = 1047
rejected = 1
matrix size = 91
fillins = 469
solver = Normal
Thread vector: 18.8/14.0[2] 6.6/5.5[2] 6.0/5.4[2] 1.1/1.8[1]  2592/500
Matrix Compiler1: 55.08 KB object code size  15.7/12.5/[8.6]
Matrix Compiler2: 15.16 KB object code size  4.6/5.5/[2.3]

