Circuit: * C:\Users\Johnny Li\Documents\LTspiceXVII\Draft5.asc

Early termination of direct N-R iteration.
Direct Newton iteration failed to find .op point.  (Use ".option noopiter" to skip.)
Starting Gmin stepping
Gmin = 10
Gmin = 1.07374
Gmin = 0.115292
Gmin = 0.0123794
Gmin = 0.00132923
Gmin = 0.000142725
Gmin = 1.5325e-005
Gmin = 1.6455e-006
vernier = 0.5
vernier = 0.25
vernier = 0.125
vernier = 0.0625
vernier = 0.03125
vernier = 0.015625
vernier = 0.0078125
vernier = 0.00390625
vernier = 0.00195313
vernier = 0.000976563
Gmin = 2.05688e-006
vernier = 0.000488281
Gmin = 0
Gmin stepping failed

Starting source stepping with srcstepmethod=0
Source Step = 3.0303%
Source Step = 18.1937%
vernier = 0.000976563
Source Step = 18.2114%
Source Step = 18.241%
Source Step = 18.2706%
Source Step = 18.3002%
Source Step = 18.3298%
vernier = 0.00146484
Source Step = 18.3712%
Source Step = 18.4156%
Source Step = 18.46%
Source Step = 18.5044%
Source Step = 18.5488%
vernier = 0.00219727
Source Step = 18.6087%
Source Step = 18.6753%
Source Step = 18.7419%
Source Step = 18.8084%
Source Step = 18.875%
vernier = 0.0032959
Source Step = 18.9616%
Source Step = 19.0615%
Source Step = 19.1613%
Source Step = 19.2612%
Source Step = 19.3611%
vernier = 0.00494385
Source Step = 19.4859%
Source Step = 19.6357%
Source Step = 19.7856%
Source Step = 19.9354%
Source Step = 20.0852%
vernier = 0.00741577
Source Step = 20.265%
Source Step = 20.4897%
Source Step = 20.7144%
Source Step = 20.9391%
Source Step = 21.1638%
vernier = 0.0111237
Source Step = 21.4223%
Source Step = 21.7594%
Source Step = 22.0964%
Source Step = 22.4335%
Source Step = 22.7706%
vernier = 0.0166855
Source Step = 23.1414%
Source Step = 23.647%
Source Step = 24.1526%
Source Step = 24.6582%
Source Step = 25.1639%
vernier = 0.0250282
Source Step = 25.6948%
Source Step = 26.4532%
Source Step = 27.2116%
Source Step = 27.9701%
Source Step = 28.7285%
Source Step = 29.4869%
vernier = 0.0375423
Source Step = 30.6246%
Source Step = 31.7622%
Source Step = 32.8999%
Source Step = 34.0375%
Source Step = 35.1752%
vernier = 0.0563135
Source Step = 36.8247%
Source Step = 38.5312%
Source Step = 40.2377%
Source Step = 41.9442%
Source Step = 43.6506%
vernier = 0.0844703
Source Step = 46.0397%
Source Step = 48.5994%
Source Step = 51.1591%
Source Step = 53.7188%
Source Step = 56.2785%
vernier = 0.126705
Source Step = 59.7341%
Source Step = 63.5737%
Source Step = 67.4132%
Source Step = 68.6431%
Source Step = 68.7031%
Source Step = 68.7631%
Source Step = 68.8231%
Source Step = 68.8831%
Source Step = 68.9431%
vernier = 0.00296966
Source Step = 69.021%
Source Step = 69.111%
Source Step = 69.201%
Source Step = 69.291%
Source Step = 69.381%
vernier = 0.00445449
Source Step = 69.4935%
Source Step = 69.6285%
Source Step = 69.7635%
Source Step = 69.8984%
Source Step = 70.0334%
vernier = 0.00668173
Source Step = 70.1954%
Source Step = 70.3979%
Source Step = 70.6004%
Source Step = 70.8028%
Source Step = 71.0053%
vernier = 0.0100226
Source Step = 71.2382%
Source Step = 71.5419%
Source Step = 71.8456%
Source Step = 72.1493%
Source Step = 72.453%
vernier = 0.0150339
Source Step = 72.7871%
Source Step = 73.2427%
Source Step = 73.6983%
Source Step = 74.1538%
Source Step = 74.6094%
vernier = 0.0225508
Source Step = 75.0877%
Source Step = 75.7711%
Source Step = 76.4545%
Source Step = 77.1378%
Source Step = 77.8212%
Source Step = 78.5045%
vernier = 0.0338263
Source Step = 79.5296%
Source Step = 80.5546%
Source Step = 81.5797%
Source Step = 82.6047%
Source Step = 83.6297%
vernier = 0.0507394
Source Step = 85.116%
Source Step = 86.6536%
Source Step = 88.1912%
Source Step = 89.7287%
Source Step = 90.5359%
Source Step = 90.9203%
Source Step = 91.3047%
Source Step = 91.6891%
Source Step = 92.0735%
vernier = 0.0190273
Source Step = 92.5348%
Source Step = 93.1113%
Source Step = 93.6879%
Source Step = 94.2645%
Source Step = 94.8411%
vernier = 0.0285409
Source Step = 95.5042%
Source Step = 96.369%
Source Step = 97.2339%
Source Step = 98.0988%
Source Step = 98.9637%
vernier = 0.0428114
Source Step = 99.915%
Source stepping succeeded in finding the operating point.


Date: Mon Oct 08 22:16:09 2018
Total elapsed time: 4.864 seconds.

tnom = 27
temp = 27
method = modified trap
totiter = 8801
traniter = 2090
tranpoints = 1046
accept = 1046
rejected = 0
matrix size = 113
fillins = 861
solver = Normal
Thread vector: 19.5/14.7[3] 9.4/6.0[3] 6.1/4.6[3] 1.9/2.7[1]  2592/500
Matrix Compiler1: 112.02 KB object code size  43.0/26.9/[17.2]
Matrix Compiler2: 23.90 KB object code size  9.0/8.8/[3.4]

