Circuit: * C:\Users\Johnny Li\Documents\LTspiceXVII\Lab10.asc

