Circuit: * C:\Users\Johnny Li\Documents\LTspiceXVII\Lab2In.asc

Direct Newton iteration for .op point succeeded.

Date: Tue Sep 11 17:17:40 2018
Total elapsed time: 0.042 seconds.

tnom = 27
temp = 27
method = trap
totiter = 3
traniter = 0
tranpoints = 0
accept = 0
rejected = 0
matrix size = 9
fillins = 0
solver = Normal
Matrix Compiler1: 350 bytes object code size
Matrix Compiler2: 613 bytes object code size
