Circuit: * C:\Users\Johnny Li\Documents\LTspiceXVII\Lab3.asc

Direct Newton iteration for .op point succeeded.

Date: Tue Sep 18 17:39:50 2018
Total elapsed time: 0.062 seconds.

tnom = 27
temp = 27
method = trap
totiter = 3
traniter = 0
tranpoints = 0
accept = 0
rejected = 0
matrix size = 12
fillins = 0
solver = Normal
Matrix Compiler1: 374 bytes object code size
Matrix Compiler2: 764 bytes object code size
