Circuit: * C:\Users\Johnny Li\Documents\LTspiceXVII\Lab4In.asc

Direct Newton iteration for .op point succeeded.

Date: Thu Sep 27 11:57:10 2018
Total elapsed time: 0.281 seconds.

tnom = 27
temp = 27
method = trap
totiter = 3
traniter = 0
tranpoints = 0
accept = 0
rejected = 0
matrix size = 14
fillins = 1
solver = Normal
Matrix Compiler1: 582 bytes object code size
Matrix Compiler2: 946 bytes object code size
