Circuit: * C:\Users\Johnny Li\Documents\LTspiceXVII\Lab5.asc

Direct Newton iteration failed to find .op point.  (Use ".option noopiter" to skip.)
Starting Gmin stepping
Increasing initial diagonal Gmin to 100
Gmin = 100
vernier = 0.5
Gmin = 18.6414
vernier = 0.25
vernier = 0.125
vernier = 0.0625
vernier = 0.03125
Gmin = 19.8679
vernier = 0.015625
vernier = 0.0078125
vernier = 0.00390625
vernier = 0.00195313
Gmin = 19.781
vernier = 0.000976563
vernier = 0.000488281
Gmin = 0
Gmin stepping failed

Starting source stepping with srcstepmethod=0
Source Step = 3.0303%
Source Step = 33.3333%
Source Step = 63.6364%
Source Step = 93.9394%
Source stepping succeeded in finding the operating point.


Date: Sun Sep 30 15:30:16 2018
Total elapsed time: 0.222 seconds.

tnom = 27
temp = 27
method = modified trap
totiter = 4029
traniter = 2268
tranpoints = 1065
accept = 1059
rejected = 6
matrix size = 31
fillins = 46
solver = Normal
Matrix Compiler1: 3.56 KB object code size  1.9/1.2/[0.8]
Matrix Compiler2: 3.28 KB object code size  1.1/2.0/[0.9]

