Circuit: * C:\Users\Johnny Li\Documents\LTspiceXVII\Lab6.asc

Early termination of direct N-R iteration.
Direct Newton iteration failed to find .op point.  (Use ".option noopiter" to skip.)
Starting Gmin stepping
Increasing initial diagonal Gmin to 100
Gmin = 100
vernier = 0.5
Gmin = 18.6414
vernier = 0.25
vernier = 0.125
vernier = 0.0625
vernier = 0.03125
Gmin = 19.8679
vernier = 0.015625
vernier = 0.0078125
vernier = 0.00390625
vernier = 0.00195313
Gmin = 19.781
vernier = 0.000976563
vernier = 0.000488281
Gmin = 0
Gmin stepping failed

Starting source stepping with srcstepmethod=0
Source Step = 3.0303%
Source Step = 33.3333%
Source Step = 63.6364%
Source Step = 93.9394%
Source stepping succeeded in finding the operating point.


Date: Mon Oct 08 20:45:53 2018
Total elapsed time: 0.795 seconds.

tnom = 27
temp = 27
method = modified trap
totiter = 3969
traniter = 2115
tranpoints = 1042
accept = 1042
rejected = 0
matrix size = 131
fillins = 363
solver = Normal
Thread vector: 18.9/12.6[3] 9.5/6.1[3] 7.7/4.1[3] 1.1/1.7[1]  2592/500
Matrix Compiler1: 35.01 KB object code size  14.2/9.8/[6.1]
Matrix Compiler2: 16.67 KB object code size  5.3/6.8/[2.7]

