Circuit: * C:\Users\Johnny Li\Documents\LTspiceXVII\Lab6_2.asc

Fatal Error: Voltage source V6 and voltage source V10 are paralleled making an over-defined circuit matrix.
You will need to correct the circuit or add some series resistance.
