Circuit: * C:\Users\Johnny Li\Documents\LTspiceXVII\Lab7.asc

Direct Newton iteration for .op point succeeded.

Date: Mon Oct 15 01:19:01 2018
Total elapsed time: 0.368 seconds.

tnom = 27
temp = 27
method = modified trap
totiter = 17938
traniter = 17930
tranpoints = 8455
accept = 6978
rejected = 1477
matrix size = 21
fillins = 0
solver = Normal
Matrix Compiler1:      39 opcodes  0.6/[0.4]/2.6
Matrix Compiler2: off  [0.4]/0.7/0.5

