Circuit: * C:\Users\Johnny Li\Documents\LTspiceXVII\Lab8.asc

Direct Newton iteration failed to find .op point.  (Use ".option noopiter" to skip.)
Starting Gmin stepping
Gmin = 10
vernier = 0.5
vernier = 0.25
Gmin = 4.03143
vernier = 0.125
vernier = 0.0625
vernier = 0.03125
vernier = 0.015625
vernier = 0.0078125
Gmin = 4.26673
vernier = 0.00390625
vernier = 0.00195313
vernier = 0.000976563
vernier = 0.000488281
Gmin = 4.25426
Gmin = 0
Gmin stepping failed

Starting source stepping with srcstepmethod=0
Source Step = 3.0303%
Source Step = 33.3333%
Source Step = 63.6364%
Source Step = 93.9394%
Source stepping succeeded in finding the operating point.

.step c=1e-009
.step c=1e-008
.step c=1e-007
.step c=1e-006

Date: Tue Oct 23 03:09:03 2018
Total elapsed time: 6.155 seconds.

tnom = 27
temp = 27
method = modified trap
totiter = 27209
traniter = 25481
tranpoints = 8458
accept = 5936
rejected = 2522
matrix size = 102
fillins = 247
solver = Normal
Thread vector: 18.6/15.4[3] 11.4/8.7[3] 8.0/5.5[3] 0.7/5.4[1]  2592/500
Matrix Compiler1: 20.98 KB object code size  8.9/6.4/[3.7]
Matrix Compiler2: 11.74 KB object code size  4.0/5.6/[2.0]

