Circuit: * C:\Users\Johnny Li\Documents\LTspiceXVII\Lab9.asc

Early termination of direct N-R iteration.
Direct Newton iteration failed to find .op point.  (Use ".option noopiter" to skip.)
Starting Gmin stepping
Gmin = 10
Gmin = 1.07374
Gmin = 0.115292
Gmin = 0.0123794
Gmin = 0.00132923
Gmin = 0.000142725
Gmin = 1.5325e-005
Gmin = 1.6455e-006
Gmin = 1.76685e-007
vernier = 0.5
vernier = 0.25
vernier = 0.125
vernier = 0.0625
Gmin = 1.54637e-007
vernier = 0.03125
vernier = 0.015625
vernier = 0.0078125
vernier = 0.00390625
Gmin = 1.55078e-007
vernier = 0.00195313
vernier = 0.000976563
vernier = 0.000488281
Gmin = 1.54926e-007
Gmin = 0
Gmin stepping succeeded in finding the operating point.


Date: Mon Oct 29 23:34:28 2018
Total elapsed time: 0.250 seconds.

tnom = 27
temp = 27
method = trap
totiter = 1655
traniter = 0
tranpoints = 0
accept = 0
rejected = 0
matrix size = 66
fillins = 178
solver = Normal
Matrix Compiler1:     650 opcodes
Matrix Compiler2: 8.26 KB object code size  2.2/3.4/[1.5]

